$ NASTRAN input file created by the Patran 2012.2 64-Bit input file
$ translator on January   08, 2019 at 12:45:50.
$ Direct Text Input for Nastran System Cell Section
$ Direct Text Input for File Management Section
$ Direct Text Input for Executive Control
$ Linear Static Analysis, Database
SOL 101
CEND
$ Direct Text Input for Global Case Control Data
TITLE = MSC.Nastran job created on 14-Jun-18 at 14:30:02
ECHO = NONE
SUBCASE 1
   SUBTITLE=Default
   SPC = 2
   LOAD = 2
   DISPLACEMENT(SORT1,REAL)=ALL
   SPCFORCES(SORT1,REAL)=ALL
   GPFORCE=ALL
   STRESS(SORT1,REAL,VONMISES,BILIN)=ALL
   FORCE(SORT1,REAL,BILIN)=ALL
$ Direct Text Input for this Subcase
BEGIN BULK
$ Direct Text Input for Bulk Data
PARAM    POST    0
PARAM   PRTMAXIM YES
$ Elements and Element Properties for region : beam_h
PBARL    1       1               BOX
        100.    100.    10.     10.
$ Pset: "beam_h" will be imported as: "pbarl.1"
CBAR     2181    1       2294    2299    0.      0.     1.
CBAR     2182    1       2299    2297    0.      0.     1.
CBAR     2183    1       2295    2300    0.      0.     1.
CBAR     2184    1       2300    2296    0.      0.     1.
CBAR     2185    1       2299    2301    0.      0.     1.
CBAR     2186    1       2301    2300    0.      0.     1.
CBAR     2188    1       2293    2285    0.      0.     1.
CBAR     2189    1       2285    2292    0.      0.     1.
CBAR     2190    1       2290    2284    0.      0.     1.
CBAR     2191    1       2284    2291    0.      0.     1.
CBAR     2192    1       2287    2282    0.      0.     1.
CBAR     2193    1       2282    2286    0.      0.     1.
CBAR     2194    1       2288    2283    0.      0.     1.
CBAR     2195    1       2283    2289    0.      0.     1.
$ Elements and Element Properties for region : beam_v
PBARL    2       2               ROD
        5.
$ Pset: "beam_v" will be imported as: "pbarl.2"
CBAR     2196    2       2291    2305    0.     1.       0.
CBAR     2197    2       2290    2302    0.     1.       0.
CBAR     2198    2       2289    2304    0.     1.       0.
CBAR     2199    2       2288    2303    0.     1.       0.
CBAR     2200    2       2293    2310    0.     1.       0.
CBAR     2201    2       2292    2311    0.     1.       0.
CBAR     2202    2       2287    2313    0.     1.       0.
CBAR     2203    2       2286    2312    0.     1.       0.
CBAR     2204    2       2297    2285    0.     1.       0.
CBAR     2205    2       2294    2282    0.     1.       0.
CBAR     2206    2       2296    2284    0.     1.       0.
CBAR     2207    2       2295    2283    0.     1.       0.
$ Elements and Element Properties for region : areofoil
PSHELL   3       3      .5       3               3
$ Pset: "areofoil" will be imported as: "pshell.3"
CQUAD4   1       3       144     147     149     143
CQUAD4   2       3       143     149     68      69
CQUAD4   3       3       65      150     148     64
CQUAD4   4       3       150     149     147     148
CQUAD4   5       3       66      67      150     65
CQUAD4   6       3       67      68      149     150
CQUAD4   7       3       145     151     147     144
CQUAD4   8       3       151     152     148     147
CQUAD4   9       3       152     63      64      148
CQUAD4   10      3       58      59      153     146
CQUAD4   11      3       146     153     151     145
CQUAD4   12      3       59      60      154     153
CQUAD4   13      3       153     154     152     151
CQUAD4   14      3       60      61      62      154
CQUAD4   15      3       154     62      63      152
CQUAD4   16      3       158     159     155     156
CQUAD4   17      3       159     139     140     155
CQUAD4   18      3       71      72      159     158
CQUAD4   19      3       72      73      139     159
CQUAD4   20      3       143     160     157     144
$ ... 1900 like lines cut
$ Elements and Element Properties for region : fixture
PSOLID   4       1       0
$ Pset: "fixture" will be imported as: "psolid.4"
CHEXA    1921    4       1876    1875    1861    1860    1984    1981
         1982    1983
CHEXA    1922    4       1877    1876    1860    1859    1986    1984
         1983    1985
CHEXA    1923    4       1878    1877    1859    1858    1988    1986
         1985    1987
CHEXA    1924    4       1879    1878    1858    1857    1990    1988
         1987    1989
CHEXA    1925    4       1880    1879    1857    1856    1992    1990
         1989    1991
CHEXA    1926    4       1881    1880    1856    1855    1994    1992
         1991    1993
CHEXA    1927    4       1882    1881    1855    1854    1996    1994
         1993    1995
CHEXA    1928    4       1883    1882    1854    1852    1998    1996
         1995    1997
CHEXA    1929    4       1884    1883    1852    1851    2000    1998
         1997    1999
CHEXA    1930    4       1885    1884    1851    1850    2002    2000
         1999    2001
CHEXA    1931    4       1886    1885    1850    1849    2004    2002
         2001    2003
CHEXA    1932    4       1887    1886    1849    1848    2006    2004
         2003    2005
CHEXA    1933    4       1888    1887    1848    1847    2008    2006
         2005    2007
CHEXA    1934    4       1889    1888    1847    1846    2010    2008
         2007    2009
CHEXA    1935    4       1890    1889    1846    1845    2012    2010
         2009    2011
CHEXA    1936    4       1891    1890    1845    1844    2014    2012
         2011    2013
CHEXA    1937    4       1892    1891    1844    1843    2016    2014
         2013    2015
CHEXA    1938    4       1893    1892    1843    1842    2018    2016
         2015    2017
CHEXA    1939    4       1894    1893    1842    1841    2020    2018
         2017    2019
CHEXA    1940    4       1895    1894    1841    1840    2022    2020
         2019    2021
$ ... 456 like lines cut
CPENTA   2169    4       1920    1907    1908    2070    2046    2048
CPENTA   2170    4       1954    1941    1942    2105    2091    2092
CPENTA   2171    4       1958    1946    1947    2109    2096    2097
CPENTA   2172    4       1974    1959    1960    2124    2110    2111
CPENTA   2173    4       1976    1952    1953    2126    2103    2104
CPENTA   2174    4       1980    1970    1969    2129    2120    2119
CPENTA   2175    4       2070    2046    2048    2220    2196    2198
CPENTA   2176    4       2105    2091    2092    2255    2241    2242
CPENTA   2177    4       2109    2096    2097    2259    2246    2247
CPENTA   2178    4       2124    2110    2111    2274    2260    2261
CPENTA   2179    4       2126    2103    2104    2276    2253    2254
CPENTA   2180    4       2129    2120    2119    2279    2270    2269
$ Referenced Material Records
$ Material Record : aluminium_iso_SI_mm_N_Ton
$ Description of Material : 1-Sep-2009\n[Young] = N/MM**2\n[Density] =
$ TON/MM**3 (0.001*KG/MM**3)\n[Length] = MM\n[Force] = N
$ (Newton)\n[Mass] = Ton (0.001 KG)\n[Stress] = N/MM**2\n
MAT1     3      70000.          .3      2.7-9   2.32-5
$ Material Record : steel_iso_SI_mm_N_Ton
$ Description of Material : 1-Sep-2009\n[Young] = N/MM**2\n[Density] =
$ TON/MM**3 (0.001*KG/MM**3)\n[Length] = MM\n[Force] = N
$ (Newton)\n[Mass] = Ton (0.001 KG)\n[Stress] = N/MM**2\n
MAT1     1      210000.         .3      7.8-9   1.2-5
$ Material Record : cable
$ Description of Material : Date: 20-Jul-18           Time: 09:24:56
MAT1     2      500000.         .3      7.8-9
$ Multipoint Constraints of the Entire Model
$ ID conflict : the PATRAN MPC ID was 3
RBE2     2208    2306    123456  679     2302
$ ID conflict : the PATRAN MPC ID was 4
RBE2     2209    2307    123456  1167    2303
$ ID conflict : the PATRAN MPC ID was 5
RBE2     2210    2308    123456  1164    2304
$ ID conflict : the PATRAN MPC ID was 6
RBE2     2211    2309    123456  676     2305
$ ID conflict : the PATRAN MPC ID was 7
RBE2     2212    2314    123456  682     2311
$ ID conflict : the PATRAN MPC ID was 8
RBE2     2213    2315    123456  1170    2312
$ ID conflict : the PATRAN MPC ID was 9
RBE2     2214    2316    123456  1173    2313
$ ID conflict : the PATRAN MPC ID was 10
RBE2     2215    2317    123456  685     2310
$ ID conflict : the PATRAN MPC ID was 11
RBE2     2216    2318    123456  1       126     127     128     129
         130     427     428     429     430     431     732     733
         734     735     736     737     738     739     1220    1221
         1222    1223    1224    1465    1466    1587    1588    1709
         1710    2131    2132    2133    2134    2135    2136    2137
         2138    2139    2140    2141    2142    2143    2144    2145
         2146    2147    2148    2149    2150    2151    2152    2153
         2154    2155    2156    2157    2158    2159    2160    2161
         2162    2163    2164    2165    2166    2167    2168    2169
         2170    2171    2172    2173    2174    2175    2176    2177
         2178    2179    2180    2181    2182    2183    2184    2185
         2186    2187    2188    2189    2190    2191    2192    2193
         2194    2195    2196    2197    2198    2199    2200    2201
         2202    2203    2204    2205    2206    2207    2208    2209
         2210    2211    2212    2213    2214    2215    2216    2217
         2218    2219    2220    2221    2222    2223    2224    2225
         2226    2227    2228    2229    2230    2231    2232    2233
         2234    2235    2236    2237    2238    2239    2240    2241
         2242    2243    2244    2245    2246    2247    2248    2249
         2250    2251    2252    2253    2254    2255    2256    2257
         2258    2259    2260    2261    2262    2263    2264    2265
         2266    2267    2268    2269    2270    2271    2272    2273
         2274    2275    2276    2277    2278    2279    2280
$ Nodes of the Entire Model
GRID     1              503.5716-4.939-978.77212
GRID     2              503.5716100.    78.77212
GRID     3              503.5716200.    78.77212
GRID     4              503.5716300.    78.77212
GRID     5              503.5716400.    78.77212
GRID     6              503.5716500.    78.77212
GRID     7              503.5716600.    78.77212
GRID     8              503.5716700.    78.77212
GRID     9              503.5716800.    78.77212
GRID     10             503.5716900.    78.77212
GRID     11             503.57161000.   78.77212
GRID     12             503.57161100.   78.77212
GRID     13             503.57161200.   78.77212
GRID     14             503.57161300.   78.77212
GRID     15             503.57161400.   78.77212
GRID     16             503.57161500.   78.77212
GRID     17             503.57161600.   78.77212
GRID     18             503.57161700.   78.77212
GRID     19             503.57161800.   78.77212
GRID     20             503.57161900.   78.77212
$ ... 2298 like lines cut
$ Loads for Load Case : Default
SPCADD   2       1       3
LOAD     2      1.      1.       1
$ Displacement Constraints of Load Set : fixed
SPC1     1       123456  1831    THRU    1980
SPC1     1       123456  2298
$ Displacement Constraints of Load Set : disp1
SPC1     3       12      2301
$ Nodal Forces of Load Set : force1
FORCE    1       2301    0      80000.   0.      0.     1.
$ Referenced Coordinate Frames
ENDDATA f4d78fe6
